60
Lattice="12.36392 0.0 0.0 0.0 24.72902 0.0 0.0 0.0 12.36451" Origin="-0.79896 -0.79945 -0.79945" Properties=species:S:1:pos:R:3
O 6.015 10.608 2.32078
H 5.22935 10.35194 2.80392
H 6.00082 11.56506 2.3295
O 6.015 10.608 9.70922
H 6.01661 10.06753 10.49923
H 6.79715 10.33468 9.22987
O 3.75163 9.8203 3.71265
H 4.01141 9.29172 4.4672
H 3.20762 9.2351 3.18556
O 3.75163 9.8203 8.31735
H 3.29402 10.61253 8.03594
H 4.51965 10.14173 8.78965
O 8.27837 9.8203 3.71265
H 7.51188 10.06854 3.19584
H 8.7965 9.27069 3.12469
O 8.27837 9.8203 8.31735
H 8.76757 10.57356 7.98642
H 8.01054 9.34401 7.53145
O 4.59285 8.33532 6.015
H 5.54981 8.34686 6.03289
H 4.33231 8.83455 6.78903
O 7.43715 8.33532 6.015
H 7.98003 7.54697 6.01035
H 7.72182 8.82729 5.24483
O 6.015 13.78651 2.32078
H 6.01339 14.32698 1.53077
H 5.23285 14.05983 2.80013
O 6.015 13.78651 9.70922
H 6.80065 14.04257 9.22608
H 6.02918 12.82945 9.7005
O 2.32032 12.36451 4.59285
H 1.52956 12.36618 4.05348
H 2.81531 11.60299 4.29069
O 2.32032 12.36451 7.43715
H 2.33833 12.39231 6.48052
H 2.81927 13.1348 7.70906
O 3.75163 14.57421 3.71265
H 3.26243 13.82095 4.04358
H 4.01946 15.0505 4.49855
O 3.75163 14.57421 8.31735
H 4.51812 14.32597 8.83416
H 3.2335 15.12382 8.90531
O 9.70968 12.36451 4.59285
H 9.69167 12.33671 5.54948
H 9.21073 11.59422 4.32094
O 9.70968 12.36451 7.43715
H 10.50044 12.36284 7.97652
H 9.21469 13.12603 7.73931
O 8.27837 14.57421 3.71265
H 8.73598 13.78198 3.99406
H 7.51035 14.25278 3.24035
O 8.27837 14.57421 8.31735
H 8.01859 15.10279 7.5628
H 8.82238 15.15941 8.84444
O 4.59285 16.05919 6.015
H 4.04997 16.84754 6.01965
H 4.30818 15.56722 6.78517
O 7.43715 16.05919 6.015
H 6.48019 16.04765 5.99711
H 7.69769 15.55996 5.24097
