153
Lattice="18.13136 0.0 0.0 0.0 18.11288 0.0 0.0 0.0 18.182" Origin="-0.53524 -0.53524 -0.58588" Properties=species:S:1:pos:R:3
O 5.92487 5.92487 5.92487
H 5.75998 6.83792 5.68955
H 6.84272 5.77984 5.69518
O 5.32179 5.32179 8.5662
H 5.53914 5.52632 7.65672
O 8.5662 5.32179 5.32179
H 8.94432 6.1074 4.92673
O 4.2387 7.66071 9.64929
H 4.60062 6.85534 9.27967
H 3.32922 7.44336 9.85382
O 4.20371 9.63809 7.64989
H 4.22695 8.98285 8.34728
H 4.58643 10.42187 8.04415
O 5.26439 8.54844 5.30462
H 4.8662 8.92706 6.08841
H 4.56904 8.57135 4.6472
O 7.59104 9.68721 4.25266
H 6.78722 9.29891 4.59812
H 7.39129 9.87671 3.33592
O 9.65672 7.66856 4.2634
H 9.00013 8.36495 4.27642
H 10.44563 8.07583 4.62115
O 11.38513 11.38513 5.92487
H 11.60951 11.60961 6.82792
H 11.94514 11.94889 5.39121
O 11.98821 11.98821 8.5662
H 11.1903 12.26079 9.01927
H 12.26079 11.1903 9.01927
O 9.64929 13.0713 9.64929
H 8.97274 13.09949 8.97274
H 9.83821 13.99046 9.83821
O 7.66071 13.0713 7.66071
H 8.03033 12.70938 6.85534
H 7.45618 13.98078 7.44336
O 8.7438 11.98821 5.32179
H 9.65123 11.75854 5.52191
H 8.36822 11.18681 4.9572
O 13.0713 9.64929 9.64929
H 13.06858 8.95167 8.99389
O 13.10629 7.6719 7.64989
H 14.01431 7.44697 7.44707
H 12.73716 6.86979 8.01947
O 12.04561 8.76156 5.30462
H 11.82119 9.66486 5.52804
H 12.40739 8.39732 6.1125
O 5.92487 11.38513 11.38513
H 5.68711 10.48536 11.60901
H 5.36855 11.92674 11.94495
O 5.32179 11.98821 8.7438
H 6.12716 12.35783 8.38188
H 5.53914 11.78368 9.65328
O 8.5662 11.98821 11.98821
H 8.92812 12.35783 11.18284
H 7.65672 11.78368 11.77086
O 5.26439 8.76156 12.00537
H 4.56555 8.73596 12.65898
H 4.87305 8.37812 11.22048
H 7.87445 6.83584 12.59191
H 6.79843 7.90076 12.59828
H 9.25796 10.43107 12.68094
O 11.38513 5.92487 11.38513
O 11.98821 5.32179 8.7438
H 11.77086 5.52632 9.65328
O 8.7438 5.32179 11.98821
H 9.66128 5.51484 11.79534
H 13.35308 13.35482 8.5826
O 10.25237 15.71263 10.25237
H 9.71933 16.27481 9.69019
O 9.64929 16.31571 12.8937
H 9.85323 16.09707 11.98439
O 1.59737 7.05763 10.25237
H 1.3601 6.1576 10.02904
H 1.03889 7.59862 9.6941
O 0.99429 7.66071 12.8937
H 1.18321 7.47179 11.97454
H 0.31774 8.33726 12.86551
O 7.05763 15.71263 7.05763
H 6.14021 15.93879 7.2107
H 7.2107 15.93879 6.14021
O 7.66071 16.31571 4.4163
H 8.35869 16.97059 4.40266
H 8.06054 15.53098 4.04138
O 4.4163 16.31571 7.66071
H 4.03818 15.5301 8.05577
H 4.40081 16.96784 8.36122
O 8.7438 13.97679 3.33321
H 8.7309 13.27862 3.98791
H 8.38872 13.57083 2.54242
O 3.32578 13.96894 8.7191
H 2.53558 13.56369 8.36192
H 3.97867 13.269 8.71198
O 1.59737 10.25237 7.05763
H 2.51469 10.10393 7.28723
H 1.43557 11.16569 7.29405
O 0.99429 9.64929 4.4163
H 1.19882 9.86664 5.32578
H 0.62467 10.45466 4.05438
O 3.33321 8.5662 3.33321
H 3.11586 7.65672 3.12868
H 2.52784 8.92812 3.70283
O 0.93689 12.87594 7.67788
H 0.54043 13.26009 6.89591
H 0.24131 12.89787 8.33508
O 7.05763 10.25237 1.59737
H 7.59067 9.69019 1.03519
H 6.15433 10.02844 1.37344
O 4.4163 9.64929 0.99429
H 4.40266 8.95131 0.33941
H 4.04138 9.24946 1.77902
O 7.71811 12.87594 0.97713
H 8.37957 12.83832 0.28627
H 7.51497 11.95961 1.16503
O 1.59737 15.71263 1.59737
H 1.37344 15.93656 2.50067
H 1.03519 16.27481 1.06433
O 0.99429 16.31571 4.2387
H 1.78375 16.71722 4.6017
H 0.34106 17.01522 4.25281
O 4.2387 16.31571 0.99429
H 3.32922 16.09836 1.19882
H 4.60062 15.51034 0.62467
O 0.93689 13.08906 0.97713
H 1.16392 13.99395 1.19129
H 1.74294 12.71789 0.61831
O 15.71263 7.05763 7.05763
H 15.93656 7.28156 6.15433
H 13.32694 8.73773 4.03598
O 10.25237 7.05763 1.59737
H 10.00587 6.14631 1.43937
H 10.0289 7.21098 2.5154
H 11.98422 7.45618 1.21164
O 2.73013 14.57987 11.38513
H 2.95217 14.35267 10.48219
H 3.29371 14.01991 11.91903
O 0.0888 13.97679 11.98821
H 1.00796 14.16571 11.79929
H 0.11699 13.30024 12.66476
O 3.39061 17.20344 12.00537
H 3.16358 16.29855 11.79121
H 2.58456 17.57461 12.36419
O 2.73013 5.92487 2.73013
H 1.82683 5.70085 2.95395
H 3.26316 5.35892 3.28854
O 3.33321 5.32179 0.0888
H 3.14429 5.51071 1.00796
O 0.0888 5.32179 3.33321
O 8.655 8.655 0.0
H 9.24088 9.19024 -0.53524
H 9.24088 8.11976 0.53524
O 0.0 8.655 8.655
H 0.53524 9.24088 8.11976
H -0.53524 9.24088 9.19024
O 4.32748 12.99335 12.99329
